     389
 i =    40001, time =    20000.500, E =     -2487.7923338054
  O         6.6968450948       10.4581495025        7.8558662064
  S         8.0954190119        9.8034952755        7.8847546047
  O         8.9638107615       10.6015008711        8.8279414526
  O         7.8735732868        8.3687923135        8.3731097307
  O         8.7649703666        9.7632036970        6.5065389017
  O         5.3308816998        3.5305242324        4.0832004448
  S         6.2363276748        2.5773995623        4.9542549500
  O         5.5708837751        1.2397812187        5.0492901324
  O         7.5835429470        2.4921039358        4.2669279118
  O         6.4175577206        3.1711362233        6.2890258650
  O        -3.7592448304        2.5985447256        3.1222940692
  H        -4.3630903968        1.8773800953        3.6123898201
  H        -3.0767663372        2.1296227024        2.6438343985
  O         6.3789827275       -3.6274734372        1.4992590147
  H         6.7402813882       -2.7420826471        1.1876258723
  H         5.7278534163       12.1022775596        2.2487219662
  O        10.0808974872        5.8693716441       10.8061057626
  H         9.7301185597        6.4564546266       11.5366223608
  H         9.8437689966        4.9426589087       11.1985591221
  O        -0.6156706061       12.0433808150       -1.0415083886
  H        -0.4277065420       12.9827717297       -1.1215106183
  H        -0.2196177720       11.8066450127       -0.1807624931
  O         5.0723682715       14.1294886636       10.8734230290
  H         5.3329044181       13.4066557834       11.4318659305
  H         4.5707134767       13.6796776795       10.0976501645
  O         0.6801645174       11.2625604710        5.3402881808
  H         1.2776358272       10.5111477703        5.5137423454
  H         1.0900328963       11.7361405392        4.5323323841
  O        -0.0657863855       11.1904751755        8.3268309747
  H        -0.5616986016       10.5785540207        7.7550266902
  H         0.8620700134       10.9309861814        8.3406547151
  O        -0.5775501376        3.9830771984        4.9783579008
  H        -1.1901538997        4.4907858042        4.3738411891
  H        -0.6126280399        4.4803938870        5.8337369414
  O         6.4447324821        1.8765841357       -1.1531605750
  H         6.0521906054        0.9771462532       -0.8940359270
  H         7.0126002324        2.2649711765       -0.4084104177
  O         1.6917021232        3.5933321449        3.5160924560
  H         1.8212026059        2.6363234704        3.6918276884
  H         0.9280843196        3.8350331410        4.1209766994
  O         2.6067501286        6.7264354243       -1.2952766666
  H         1.9169404269        7.3616539517       -1.4084298177
  H         2.5019874962        6.6699692956       -0.2963486873
  O         1.2964943010        2.5940519893       -3.4889803450
  H         0.6197379439        2.7742841632       -2.7673243392
  H         0.7626601844        2.2844153202       -4.2357784600
  O         5.1990581674       -0.2131168935        7.4157230995
  H         5.6437562389        0.1392056611        6.6146162867
  H         4.8260579819        0.5819306262        7.9236774232
  O         1.0501262453       14.1162938663        5.5547853038
  H         0.9626463617       13.1520764717        5.8137092239
  H         0.1587463309       14.6428226168        5.6426634484
  O         7.3948225777        6.9179307201        1.0837982047
  H         7.1186952444        7.6825796200        0.4853872857
  H         6.7335779582        6.2063343441        1.0339786426
  O         8.4379553236       10.3877439290        2.7054158676
  H         7.8996416629       10.8864870372        2.0478777654
  H         8.6151225872       10.9093600431        3.5201868240
  O        -1.2235389170        5.4790226208        7.2217543266
  H        -1.1558773998        4.9746920604        8.0780348296
  H        -0.3868897600        6.1661442006        7.1105695950
  O         3.9134064904        0.7079058096       -2.9128931359
  H         2.9762754445        0.4482432355       -3.0743650732
  H         4.3443735488        0.0345748221       -3.5293189758
  O         6.8911827113        4.3712565029        2.0303112145
  H        -7.8879770548        3.7644391120        1.8799617481
  H         6.3088277240        4.1310868071        2.8411883779
  O         0.9698214963        7.2020566763        7.0277554830
  H         1.6091543147        7.8977151424        6.6450477325
  H         1.3675401688        6.8095472986        7.8857212747
  O        11.8893200161       11.1263410869        7.2967640250
  H        11.9591399151       10.8097661520        6.3549174560
  H        11.0326893065       10.8620793516        7.6653654582
  O         9.2664880551       11.8272519343        4.9278407179
  H         9.4434054572       11.3109318947        5.7066542403
  H         9.9596235259       12.5703619989        4.9329268590
  O        -4.0357454353        5.0204352994        2.1561799527
  H        -3.8399718740        4.9301238024        1.1897209688
  H        -3.9860111555        4.0739522892        2.5359150868
  O        -1.0502598899       14.6142326624       10.0502721227
  H        -1.0178070757       14.0610076326        9.2133601599
  H        -1.7678932505       14.1426256485       -4.9751784115
  O         2.7416483508        6.8764473769        3.8634824026
  H         3.0570940592        6.1429847924        4.4531662803
  H         1.7637619686        6.8556546335        3.8129659551
  O         5.0915153934       -0.5166401374       -0.8653836791
  H         4.4297774167       -0.2715173771       -1.5181932582
  H         4.5514456311       -1.0339009803       -0.2033527514
  O         2.4466407677        9.3036836373       -3.8622659455
  H         2.9010294177        8.4780758671       -4.1686280853
  H         3.1404943322        9.7195104092       -3.2090469198
  O         2.9585894746        4.6368982933       -2.9344139157
  H         2.6229797826        5.2582304129       -2.2043544263
  H         2.1842782022        4.1979699812       -3.3186894437
  O        10.2415510080       14.2102351331        1.3121617060
  H         9.3478633857       14.0680491669        0.9526138465
  H        10.7619223313       13.4539211322        0.9463970660
  O        14.7904611911       10.4078612674        2.3598405722
  H        14.3786714189       10.7751320422        3.1666532557
  H        -0.3626947326        9.5440970879        2.6604520264
  O         5.5305704960        3.1277336722       -4.7471213714
  H         6.0649827596        3.7515155104       10.2846989630
  H         6.0738929413        2.3361736405       -4.8771546667
  O         3.8837365800       13.0921047252        8.7049422847
  H         3.3525667592       12.2925427347        8.7112478234
  H         3.4057917598       13.8227282249        8.2531474626
  O         5.4405596530       -1.1451099487        3.6980989620
  H         5.6462209189       13.6437444163        4.3133828622
  H         5.1774439045       -0.4372736769        4.2605282414
  O        -7.1777133742       16.2448520047       -2.8128380792
  H        -7.7955220552       16.6919607556       -2.1349818568
  H         7.8123078849       16.2923648711       -3.6482053583
  O        10.8445603588       16.4112208251       -0.0489436724
  H        11.2945280901       16.1943523893       -0.8573534867
  H        10.6207618079       15.5503140973        0.3279863205
  O        -3.2093350065        3.2733809730       -0.3355435143
  H        -3.1375075988        3.9293851114       -1.0713169667
  H        -3.9070845760        2.6257477299       -0.5868009766
  O        12.1768806824       15.8667467800        6.6836639092
  H        12.9719137896       15.8816066693        6.0314146447
  H        11.6834600407       14.9996218592        6.6943332683
  O        -1.2583521355       13.6901140054        7.3687887386
  H        -0.8824155934       12.7880983845        7.3136089735
  H        -1.9052662107       13.8480745335        6.6758178747
  O         9.3299928803        4.7084942506       -1.2154581183
  H         8.3787487224        5.0000561357       -1.3458556397
  H         9.6225605169        4.0687994270       -1.8962614892
  O         6.6330269683       12.6694142134        5.4963538313
  H         7.5852421852       12.7327939320        5.3549072253
  H         6.4733820480       11.7537577602        5.2477322579
  O         6.5987310244        7.4833773180       10.6523165732
  H         7.0093828931        7.8388652238        9.8357165408
  H         7.2741973761        7.6122082360       11.3148215895
  O         9.1853098702        9.2153029423       -0.8519209015
  H         9.6958779642        9.2448472817        0.0295861389
  H         8.2647507839        9.5185228826       -0.5223893783
  O         1.6734035176        5.7230336719        9.0389581658
  H         1.8820090604        4.8569117569        8.7146187165
  H         2.3402666218        5.9400650126        9.7591945318
  O        12.3731856643        9.0470637481       -2.4174893962
  H        12.6457958787        9.5546403185       -1.6055769170
  H        13.1549607379        8.9355134670       12.6470852462
  O         4.2043239347        8.8574029817        8.5604463006
  H         5.1921060933        9.1446694006        8.3414940114
  H         4.3465474977        7.8831462628        8.3689549700
  O         1.4833599015       14.8428682184       -4.4789490919
  H         2.0338425745       15.0974355411       -5.2592956588
  H         0.5653330784       14.7798483506       10.6276431168
  O         7.3227937897        6.7526745254        6.1599702758
  H         7.5336044589        7.5280451988        6.7966361396
  H         7.3542234344        7.1133109518        5.2531806810
  O        -1.7323013038        5.9259812511       13.8957414544
  H        -1.0835057898        6.6157337998       14.2393330618
  H        -2.6074805951        6.1232381194       14.3619337175
  O        12.3453628437       16.2994152925        9.3762926376
  H        13.2103937688       15.8998208245        9.6438688585
  H        12.3894902135       16.2172008068        8.3646796095
  O         9.1221743429        7.6839827784       12.2262769569
  H         9.2779620652        8.4403505888       11.5746705962
  H         9.1747763317        8.0067591671       -2.4008495211
  O        -0.8759729610       14.4775643012        2.9441900623
  H        -1.4809909552       14.1327197662        3.6872103350
  H        -0.2121637104       13.7785655633        2.7905835267
  O         3.8127235806        6.8317580322       11.1643520421
  H         3.6614240731        5.9930026506       11.6808660348
  H         4.7261582767        6.8823908693       10.8611324806
  O         9.7203053550        6.7862152026        2.7173830133
  H        10.3882213583        6.1249178179        2.5321180135
  H         9.1078292731        6.7917160893        1.9753072210
  O        13.7690346440        6.0695458262        3.5155449338
  H        13.5310364209        6.6205476977        4.3302763586
  H        12.9740128129        5.9720290841        2.9611534434
  O         4.1765698090        1.8067365859        2.0743633538
  H         4.3907456258        2.4498044284        2.8179478021
  H         5.0010810870        1.2267813780        1.9585712433
  O         7.9524222243       12.7456120684       10.0474752417
  H         8.6375440011       13.3828119661       10.3728106122
  H         8.5249112282       12.0716865503        9.6485977549
  O         8.7475403214       18.2059184472        0.6865287038
  H         9.3224272330       17.4123125099        0.6378085136
  H         9.0544929649       18.7838488956       -0.0568697505
  O        10.5015284709        2.7109674754       -2.6355590184
  H        10.7138629537        2.8283939928       11.9531511252
  H         9.7787924820        2.1015523420       -2.6492927047
  O         3.6538780932       14.1080534366        1.2860738856
  H         4.3300127137       14.1314554907        2.0111781087
  H         3.3600965484       15.0398578184        1.2967663837
  O        -2.0169674171       10.6193637725       10.6365727087
  H        14.3944367623       10.3681861149       11.1883857034
  H        13.9989082691       10.9094557126        9.8630456325
  O        15.6621681890        2.0158191824       -5.9122218063
  H        16.3515049259        2.1214927278       -6.6412885060
  H        -0.2736339686        1.1098907926        9.7006176688
  O         4.4379784540       10.5160760693       -2.3586083768
  H         5.1427110866       10.9889987291       -2.9185016155
  H         4.1558815963       11.1227399655       -1.6524113454
  O         6.7086484379        4.9805720760       -1.9033871107
  H         6.5506173391        5.9682314065       -1.9949824911
  H         6.1680754448        4.8076469187       -1.1080721135
  O         8.7037728389        0.5673380076        8.1737774986
  H         9.3490013026       -0.0656615280        8.6017279453
  H         9.1246836075        1.4630292896        8.0641434146
  O         6.8299612621       16.2890096013        2.1128957046
  H         7.2871692649       17.0451012896        2.4820605658
  H         6.6315559716       15.6773247354        2.8355105883
  O         9.9643912055        9.8495474032       11.0256022625
  H        10.9024027967        9.5926213543       11.1502569950
  H         9.8294245814       10.2245904401       10.0870143478
  O        -4.0221870610        4.0641088430        5.9946949407
  H        -3.2186944133       19.2716061747        5.5489881795
  H        10.7619906757        3.9687761367        5.3100661479
  O         2.0067271001        3.1790806340        7.6216396394
  H         2.9035203120        3.0464830036        8.0129700054
  H        17.8894943050       18.9464846888        6.6954599109
  O         2.3432168890       10.0610998769        1.3067356823
  H         2.4712234340       10.5756327601        0.4617222046
  H         2.7687476226        9.1475368849        1.3042595729
  O        12.9674468798       13.5313708774        4.7813848746
  H        11.9916527534       13.8244821970        4.4313385263
  H        12.9273735669       12.6133657426        4.9923814231
  O         6.3310513598       11.7634278876       12.0157728902
  H         6.8608457407       11.9186106927       11.1522932379
  H         6.7593703230       12.5057920121       12.5952049770
  O        16.5644971566       12.5106066707        2.4610551507
  H        17.5840955666       12.4499451073        2.3505331779
  H        16.1910416590       11.6258625853        2.3453862030
  O         8.1669348206       -1.8238414934       13.5567444657
  H         8.5962786749       -1.0399867226       13.2150889385
  H         8.6541307104       -2.6377871085       13.2898098212
  O        -0.3299650414       15.4637863166       -1.9889182850
  H        -0.0497635336       15.8872122698       -1.1273530024
  H         0.4164838752       15.4852344425       -2.6249075140
  O        -2.2135518176       16.4546754181        1.5800246453
  H        -2.9757965437       16.2884259329        1.0050087092
  H        -1.8773641882       15.6046223799        1.9648563504
  O        -2.6606136054        6.2137643100       11.3620042607
  H        -2.3123762024        6.2660146185       12.3066963216
  H        -3.6416803656        6.1526277222       11.3509796080
  O         9.8503238918       11.4214964389       -2.1374915923
  H        10.1808642449       11.1131031729       -3.0297267214
  H         9.6200424793       10.6152535202       -1.6521340698
  O         0.3013670312        3.9171768197       -0.7452806880
  H         0.2024561921       18.6079238783       -0.2845792889
  H        -0.5255296916        4.4651368230       -0.8500652459
  O        12.7801651266        8.0231868906        9.3224348636
  H        -2.8403492817        8.8988069657        9.7914088516
  H        -2.7907231559        7.3597733414       10.0393159706
  O         4.2274839364        7.7660246823        1.6187204074
  H         3.7308147727        7.4046019240        2.4103978100
  H         4.5497305025        6.9260948683        1.2831830531
  O        10.2001558792        1.3645507709        4.9060346078
  H        10.5644593173        1.1582944048        5.7608242933
  H         9.2311191955        1.6470573742        5.0176475942
  O        -2.6062479329        7.9851419209        5.3303339938
  H        -3.6280349728        8.0263364379        5.3658581490
  H        -2.1555343424        8.2272361701        6.1823773085
  O         6.8232622196        0.6957927377       10.3870112383
  H         7.2304836322       16.0965317063        9.5448792572
  H         6.0853210908       15.6108088810       10.3525284929
  O        -3.0050470695       13.1097263864       11.4257671644
  H        -2.9246505404       -2.0555394830       12.3668805843
  H        -2.7431897880       12.1480167974       11.4218165178
  O        -1.1968421835        8.7872418245        7.3260272001
  H        -0.3874436779        8.2127294759        7.0801338031
  H        -1.5249190022        8.5025078814        8.1842426427
  O         2.3621132891       10.7277267744        9.1412536709
  H         2.1172330726       10.6084720638       10.0675082427
  H         3.0074576390        9.9831461433        9.0268076594
  O        -1.7079914873        4.1690715500        9.6723765180
  H        -1.7595055665        4.8206363154       10.4277707351
  H        -1.0872525146        3.4589650387        9.8742676796
  O         6.8877634672        8.1283437969        3.8380796116
  H         7.4749663967        8.9167928878        3.5371358177
  H         6.7458839933        7.6685717911        2.9801491939
  O         1.9633588374       -0.3858151847        8.3795159434
  H         2.3250567330        0.4342605123        7.9521261962
  H         1.1899384314       -0.5505730902        7.7443961739
  O         4.5732084544        2.3903194475        8.3250530266
  H         4.7835294586        2.6649598754        9.2490327467
  H         5.1052958921        2.8466058163        7.6378323481
  O        10.6024175961       14.0490246227        3.9352888129
  H        10.5262867741       14.1248229469        2.9360931101
  H        10.2888308587       14.9281840881        4.2142291440
  O         5.1579761799        5.9872756009        7.4375456151
  H         5.8253892871        6.1317071852        6.6746959452
  H         4.3877066407        5.5279784346        7.0256569653
  O        -0.1947007673        9.9728464538       12.5123043460
  H         0.6505277216        9.7049412879       12.0765534604
  H         0.0150194498       10.7822513202       12.9640571487
  O         6.8553855521        4.9670821953        9.1676791781
  H         6.1132745774        5.3246425131        8.6299396290
  H         7.1140402041        5.7340062283        9.7415096906
  O         3.2982579948        4.5186462580        5.3654645259
  H         4.0937959626        3.9618295945        5.1206428888
  H         2.6107171878        4.1710109319        4.7246168492
  O         3.8162632622       11.3802466221        2.9450366673
  H         3.9670868049       10.8648641107        3.7823671152
  H         3.4190104894       10.7519921222        2.2594160524
  O        -4.8956282980       13.8198410336        7.5126715449
  H        -4.5470961483       12.8890780897        7.3880944791
  H        -4.9203184589       13.8390236778        8.5003813417
  O        -2.0710465647       10.7437238425        4.8444327328
  H        -2.1721186431        9.7926265673        4.8832813114
  H        14.3243764560       11.1131789732        5.1789520017
  O        -3.8629159382       12.4675222626       -0.0304389228
  H        -3.2699437560       11.6570507645        0.1744896291
  H        -4.4760939949       12.1576573797       -0.7302727757
  O         5.0830965814        5.0412222679        0.3385657090
  H         4.2688009675        4.4501247821        0.4170351225
  H         5.8259712281        4.7807112906        0.9888243852
  O         2.0125798257       12.2978508520       12.0107808230
  H         1.7484300113       13.2324934512       11.6558581665
  H         2.9666412893       12.2740650971       11.7687330754
  O        -1.1842310683        1.1240232880        5.1218460471
  H        -0.9600205632        2.0770125428        5.1190665573
  H        -1.2494890604        0.8041035957        4.1981331355
  O         5.4844181043        7.4912283577       -1.8305736611
  H         5.4288326770        7.9763707573       -2.6385011918
  H         4.5191920954        7.3495051284       14.0052145636
  O        10.1852334148       14.2569621030       10.6146886951
  H        10.2749607685       15.2019461668       10.6802916276
  H        11.0741784059       13.8385896880       10.7714078922
  O        -0.0423907069        7.9167186644       -0.8521160828
  H        -0.3261687283        8.5811275948       -1.4448243007
  H        -0.1371738825        8.2435215194        0.0293470551
  O        11.2506438567        3.1068195146       10.3786665514
  H        11.9589985777        3.7146882501       10.1758035362
  H        11.5681587274        2.1857920375       10.0385307836
  O         2.7689807774        1.0161482204        4.7335441747
  H         3.7922590361        0.9902821105        4.9513774872
  H         2.3801858636        0.2713424887        5.2830110860
  O        12.8931274902       10.0438859440        0.3168323252
  H        12.1110698758        9.8390602237        0.9052998626
  H        13.6272288394        9.8726554462        0.9147018613
  O        10.1700152107        7.6960835199        5.2772055515
  H         9.7449140286        8.4590285343        5.7598932293
  H         9.6926519937        7.4777488875        4.4510453195
  O         9.2137388603        4.4945949298        4.7171340689
  H         9.0578112686        5.1930283835        4.1265738641
  H         8.5786678603        3.7762113281        4.4585404353
  O         2.8690404371       11.8533077820       -0.5787757439
  H         2.3676258355       12.1027058034       14.1680395350
  H         3.1608189029       12.6575260379       -0.1146546390
  O         2.2178350457        9.1878914915        5.4865798981
  H         2.3905845127        8.6829699454        4.6540240417
  H         3.1104735408        9.4230447236        5.9736574279
  O         7.8035987691       -1.3366016323        0.5409032243
  H         7.5125803696       -1.5136799628       -0.3728188912
  H         7.3721335210       -0.5556252403        0.8838992655
  O         1.5719042762        5.5464268096        1.2245114933
  H         1.6600690591        5.0110953713        2.0522537912
  H         1.1192917146        5.0194402260        0.5428085363
  O        10.6048704004        9.1054842384        1.6759473229
  H        -4.8598013553        8.2248625351        2.0765676573
  H        -5.7762232140        9.5381148960        2.0105788886
  O         9.5803488620        6.1731130314        8.1709264626
  H         9.6909129350        6.0066209809        9.1415400158
  H         9.0006198294        6.9237628515        8.1659429830
  O         5.0865351810        9.9036614407        5.6141094869
  H         5.7062623849       10.0840489054        6.3965246681
  H         5.4658329151        9.2294881598        5.0353009395
  O         3.3743389706        3.0762163484       -0.1910698554
  H         2.4031192279        3.1635132165       -0.3899243098
  H         3.4665861004        2.6030627316        0.6958492790
  O         1.5246080229       16.0842713332        2.4381680891
  H         0.9127904294       15.4310494602        2.9079610937
  H         2.1368940292        0.8039629697        3.1804229420
  O         0.1645222712        7.6492127839        2.4133573293
  H        -0.6463658744        7.3133326211        2.8840253126
  H         0.6079997320        6.8911890575        1.9240212134
  O        -2.7294748002       14.3434948139       -1.7946271481
  H        -2.8793744474       13.6703157928       -1.0222964043
  H        -1.8437749511       14.7880372418       -1.6929000014
  O        11.4689386549        6.7315988241       -0.9995208219
  H        11.4437225957        7.6163371585       -1.5065944239
  H        10.6028754644        6.2458966678       -1.0272085516
  O         6.7420554104        9.5915039347       -0.1450059765
  H         6.3229063394       10.3492188594        0.3648662204
  H         6.0901767577        9.1393848825       -0.7426241231
  O         0.2533118176        1.3262687079        0.1580457233
  H        -0.6622184672        1.3357640449        0.6671721141
  H         0.8940318454        1.1534311572        1.0125863975
  O         9.8826975387        3.0894205842        7.9951364646
  H        10.0556882133        3.2297004483        8.9405377367
  H        10.7218603970        3.2673891841        7.5593965260
 NA         8.2202939674        4.6460571720        7.0667151810
 NA         4.6392905923        3.0798311469       -2.3736613753
 NA        11.8791081271        6.0522128925        7.1321505395
 NA         6.3823475923       12.9385706238        7.9090648514
